Version 4
SHEET 1 2292 1220
WIRE 1712 -240 1696 -240
WIRE 1824 -240 1792 -240
WIRE 2224 -192 2096 -192
WIRE 2096 -112 2096 -192
WIRE 2128 -112 2096 -112
WIRE 1920 -96 1888 -96
WIRE 2224 -96 2224 -192
WIRE 2224 -96 2192 -96
WIRE 2288 -96 2224 -96
WIRE 720 -80 704 -80
WIRE 864 -80 800 -80
WIRE 1600 -80 864 -80
WIRE 1696 -80 1696 -240
WIRE 1696 -80 1680 -80
WIRE 1728 -80 1696 -80
WIRE 2080 -80 2048 -80
WIRE 2128 -80 2080 -80
WIRE 1824 -64 1824 -240
WIRE 1824 -64 1792 -64
WIRE 1920 -64 1824 -64
WIRE 864 -48 864 -80
WIRE 1728 -48 1696 -48
WIRE 1696 -16 1696 -48
WIRE 1888 -16 1888 -96
WIRE 2080 -16 2080 -80
WIRE 2080 -16 1888 -16
WIRE 1888 0 1888 -16
WIRE -144 16 -272 16
WIRE 0 16 -144 16
WIRE -144 112 -144 96
WIRE 0 112 -144 112
WIRE 1888 112 1888 80
WIRE 1984 112 1888 112
WIRE 2080 112 2080 48
WIRE 2080 112 1984 112
WIRE -144 128 -144 112
WIRE 400 128 400 80
WIRE 1984 160 1984 112
WIRE 640 192 528 192
WIRE 576 224 576 48
WIRE -144 240 -144 208
WIRE 528 240 528 192
WIRE 544 240 528 240
WIRE 640 256 640 192
WIRE 640 256 608 256
WIRE 704 256 704 -80
WIRE 704 256 640 256
WIRE 192 272 0 272
WIRE 272 272 192 272
WIRE 400 272 400 208
WIRE 400 272 336 272
WIRE 544 272 400 272
WIRE 192 304 192 272
WIRE 1712 336 1696 336
WIRE 1824 336 1792 336
WIRE 0 400 0 352
WIRE 192 432 192 384
WIRE 704 496 704 256
WIRE 720 496 704 496
WIRE 848 496 784 496
WIRE 1200 496 848 496
WIRE 1344 496 1280 496
WIRE 1600 496 1344 496
WIRE 1696 496 1696 336
WIRE 1696 496 1680 496
WIRE 1728 496 1696 496
WIRE 848 512 848 496
WIRE 1824 512 1824 336
WIRE 1824 512 1792 512
WIRE 1920 512 1824 512
WIRE 1344 528 1344 496
WIRE 1728 528 1696 528
WIRE 1696 560 1696 528
WIRE 1712 816 1696 816
WIRE 1824 816 1792 816
WIRE 704 976 704 496
WIRE 784 976 768 976
WIRE 1600 976 784 976
WIRE 1696 976 1696 816
WIRE 1696 976 1680 976
WIRE 1728 976 1696 976
WIRE 1824 992 1824 816
WIRE 1824 992 1792 992
WIRE 1920 992 1824 992
WIRE 1728 1008 1696 1008
WIRE 784 1024 784 976
WIRE 1696 1040 1696 1008
WIRE 784 1136 784 1104
FLAG 0 400 0
FLAG 192 432 0
FLAG -272 96 0
FLAG -144 240 0
FLAG 0 16 9V
IOPIN 0 16 In
FLAG 0 112 4.5V
IOPIN 0 112 In
FLAG 400 80 4.5V
IOPIN 400 80 In
FLAG 576 288 0
FLAG 576 48 9V
IOPIN 576 48 In
FLAG 1760 -32 0
FLAG 1760 -96 9V
IOPIN 1760 -96 In
FLAG 1696 64 4.5V
IOPIN 1696 64 In
FLAG 864 16 0
FLAG 1760 544 0
FLAG 1760 480 9V
IOPIN 1760 480 In
FLAG 1696 640 4.5V
IOPIN 1696 640 In
FLAG 848 592 0
FLAG 1760 1024 0
FLAG 1760 960 9V
IOPIN 1760 960 In
FLAG 1696 1120 4.5V
IOPIN 1696 1120 In
FLAG 1344 592 0
FLAG 784 1136 0
FLAG 1952 -48 0
FLAG 1952 -112 9V
IOPIN 1952 -112 In
FLAG 2160 -64 0
FLAG 2160 -128 9V
IOPIN 2160 -128 In
FLAG 1984 160 0
SYMBOL Res 176 288 R0
SYMATTR InstName R1
SYMATTR Value 2.2Meg
SYMBOL Cap 336 256 R90
WINDOW 0 0 32 VBottom 2
WINDOW 3 32 32 VTop 2
SYMATTR InstName C1
SYMATTR Value 22n
SYMBOL Voltage 0 256 R0
WINDOW 3 -108 115 Left 2
SYMATTR Value SINE(0 0.25 400 0 100)
SYMATTR InstName V1
SYMATTR Value2 AC 0.5
SYMBOL Voltage -272 0 R0
SYMATTR InstName V2
SYMATTR Value 9v
SYMBOL Res 384 112 R0
SYMATTR InstName R2
SYMATTR Value 2.2Meg
SYMBOL Res -160 0 R0
SYMATTR InstName R3
SYMATTR Value 10k
SYMBOL Res -160 112 R0
SYMATTR InstName R4
SYMATTR Value 10k
SYMBOL OpAmps/TL072 576 192 R0
SYMATTR InstName U1
SYMBOL OpAmps/TL072 1760 -128 R0
SYMATTR InstName U2
SYMBOL Res 1696 -96 R90
WINDOW 0 0 56 VBottom 2
WINDOW 3 32 56 VTop 2
SYMATTR InstName R6
SYMATTR Value 11k
SYMBOL Res 1808 -256 R90
WINDOW 0 0 56 VBottom 2
WINDOW 3 32 56 VTop 2
SYMATTR InstName R7
SYMATTR Value 100k
SYMBOL Res 1680 -32 R0
SYMATTR InstName R8
SYMATTR Value 2.2Meg
SYMBOL Res 816 -96 R90
WINDOW 0 0 56 VBottom 2
WINDOW 3 32 56 VTop 2
SYMATTR InstName R9
SYMATTR Value 400
SYMBOL polcap 848 -48 R0
SYMATTR InstName C3
SYMATTR Value 1µ
SYMBOL OpAmps/TL072 1760 448 R0
SYMATTR InstName U3
SYMBOL Res 1696 480 R90
WINDOW 0 0 56 VBottom 2
WINDOW 3 32 56 VTop 2
SYMATTR InstName R11
SYMATTR Value 7.4k
SYMBOL Res 1808 320 R90
WINDOW 0 0 56 VBottom 2
WINDOW 3 32 56 VTop 2
SYMATTR InstName R12
SYMATTR Value 200k
SYMBOL Res 1680 544 R0
SYMATTR InstName R13
SYMATTR Value 2.2Meg
SYMBOL OpAmps/TL072 1760 928 R0
SYMATTR InstName U4
SYMBOL Res 1696 960 R90
WINDOW 0 0 56 VBottom 2
WINDOW 3 32 56 VTop 2
SYMATTR InstName R16
SYMATTR Value 1.1k
SYMBOL Res 1808 800 R90
WINDOW 0 0 56 VBottom 2
WINDOW 3 32 56 VTop 2
SYMATTR InstName R17
SYMATTR Value 10k
SYMBOL Res 1680 1024 R0
SYMATTR InstName R18
SYMATTR Value 2.2Meg
SYMBOL Cap 784 480 R90
WINDOW 0 0 32 VBottom 2
WINDOW 3 32 32 VTop 2
SYMATTR InstName C4
SYMATTR Value 100n
SYMBOL Res 832 496 R0
SYMATTR InstName R10
SYMATTR Value 400k
SYMBOL Res 1296 480 R90
WINDOW 0 0 56 VBottom 2
WINDOW 3 32 56 VTop 2
SYMATTR InstName R14
SYMATTR Value 500
SYMBOL Cap 1328 528 R0
SYMATTR InstName C5
SYMATTR Value 200nf
SYMBOL Cap 768 960 R90
WINDOW 0 0 32 VBottom 2
WINDOW 3 32 32 VTop 2
SYMATTR InstName C6
SYMATTR Value 20n
SYMBOL Res 768 1008 R0
SYMATTR InstName R15
SYMATTR Value 50k
SYMBOL OpAmps/TL072 1952 -144 R0
SYMATTR InstName U5
SYMBOL Res 1872 -16 R0
SYMATTR InstName R5
SYMATTR Value 220k
SYMBOL polcap 2064 -16 R0
SYMATTR InstName C2
SYMATTR Value 220n
SYMBOL OpAmps/TL072 2160 -160 R0
SYMATTR InstName U6
SYMBOL Diode 1984 -64 R270
WINDOW 0 -29 35 VTop 2
WINDOW 3 67 43 VBottom 2
SYMATTR InstName D1
SYMATTR Value 1N34A
TEXT -16 216 Left 2 ;.ac dec 101 10 20k
TEXT -8 240 Left 2 !.tran 80m
